<!DOCTYPE html>
<html>
  <head>
    <meta name="pypi:repository-version" content="1.2">
    <title>Links for deep-utils-dynamodb</title>
  </head>
  <body>
    <h1>Links for deep-utils-dynamodb</h1>
<a href="https://files.pythonhosted.org/packages/b8/51/0eca2fdf4e61f41d523b1b8a7142bec1f300b575ce81b19ab122343cba66/deep_utils.dynamodb-1.0.0.tar.gz#sha256=dac0142e5d66f27cfaa842e80eaa9e5f6fa2539260450ce4a0f7ff1172514fe1" >deep_utils.dynamodb-1.0.0.tar.gz</a><br />
</body>
</html>
<!--SERIAL 7977287-->