<!DOCTYPE html>
<html>
  <head>
    <meta name="pypi:repository-version" content="1.3">
    <title>Links for setuptools-dynamic-dependencies</title>
  </head>
  <body>
    <h1>Links for setuptools-dynamic-dependencies</h1>
<a href="https://files.pythonhosted.org/packages/08/7b/e6f08ea8c21dbf01fe83fa13a2cba22d8953c3a78e5c37be2c29b3d9e2fa/setuptools_dynamic_dependencies-1.0.0-py3-none-any.whl#sha256=bf4366ef91ebcc9f16aac3c1c2c607b76eadf6964d6fd84156ce353a29cffbc6" data-requires-python="&gt;=3.9" data-dist-info-metadata="sha256=14268e0bd00d1c5362e379e276da584df20cd2de6df6e6ac37bf46075453b71f" data-core-metadata="sha256=14268e0bd00d1c5362e379e276da584df20cd2de6df6e6ac37bf46075453b71f">setuptools_dynamic_dependencies-1.0.0-py3-none-any.whl</a><br />
<a href="https://files.pythonhosted.org/packages/ca/81/c1a0b26eb2e9b001b8719aefd0e351fbf9eaa06ff58cd6479494edb8ef56/setuptools_dynamic_dependencies-1.0.0.tar.gz#sha256=4ee2566acbd83822efee73e0bc865234815359ac54ef851fa751033a67ad532f" data-requires-python="&gt;=3.9" >setuptools_dynamic_dependencies-1.0.0.tar.gz</a><br />
</body>
</html>
<!--SERIAL 26902679-->